Version 4
SHEET 1 1408 724
WIRE 816 -288 -224 -288
WIRE -224 -80 -224 -288
WIRE -224 -80 -352 -80
WIRE -112 -80 -224 -80
WIRE -32 -80 -112 -80
WIRE 880 -80 64 -80
WIRE 912 -80 880 -80
WIRE 1024 -80 992 -80
WIRE 1104 -80 1024 -80
WIRE 1216 -80 1104 -80
WIRE -112 -64 -112 -80
WIRE 880 -48 880 -80
WIRE 1024 -48 1024 -80
WIRE 1104 -32 1104 -80
WIRE 48 16 48 -32
WIRE 48 16 -112 16
WIRE 112 16 48 16
WIRE 992 48 944 48
WIRE 1216 48 1216 -80
WIRE 768 64 736 64
WIRE 880 64 880 32
WIRE 880 64 848 64
WIRE 944 64 944 48
WIRE 944 64 880 64
WIRE 1024 64 1024 32
WIRE 1024 64 960 64
WIRE 1072 64 1024 64
WIRE 736 80 736 64
WIRE 1104 80 1104 48
WIRE 1168 80 1104 80
WIRE 960 96 960 64
WIRE 992 96 992 48
WIRE 1104 96 1104 80
WIRE -352 112 -352 -80
WIRE 48 112 48 96
WIRE 112 112 112 96
WIRE 112 112 48 112
WIRE 1072 144 1072 64
WIRE 1216 144 1216 128
WIRE 48 160 48 112
WIRE 384 160 352 160
WIRE 528 160 480 160
WIRE 320 176 160 176
WIRE 816 176 816 -288
WIRE 1008 176 1008 160
WIRE 1008 176 816 176
WIRE 320 192 320 176
WIRE 352 192 352 160
WIRE 496 192 432 192
WIRE 976 192 976 160
WIRE 160 208 160 176
WIRE 160 208 112 208
WIRE 528 208 528 160
WIRE 672 208 528 208
WIRE 1104 208 1104 176
WIRE 160 240 160 208
WIRE 944 240 944 160
WIRE 1072 240 1072 224
WIRE 1072 240 944 240
WIRE 944 256 944 240
WIRE 352 272 352 192
WIRE 352 272 320 272
WIRE 384 272 352 272
WIRE 624 272 560 272
WIRE 672 272 672 208
WIRE 1168 272 1168 80
WIRE 1168 272 672 272
WIRE 496 288 496 256
WIRE 496 288 448 288
WIRE 528 288 528 208
WIRE 528 288 496 288
WIRE 624 288 624 272
WIRE 384 304 352 304
WIRE 160 320 160 304
WIRE 560 320 560 272
WIRE 560 320 448 320
WIRE -224 336 -224 -80
WIRE 384 336 -224 336
WIRE 864 352 832 352
WIRE 944 352 944 336
WIRE 976 352 944 352
WIRE 832 368 832 352
WIRE -352 400 -352 192
WIRE 48 400 48 256
WIRE 624 400 624 368
WIRE 352 416 352 304
WIRE 784 432 768 432
WIRE 880 432 864 432
WIRE 976 432 976 352
WIRE 976 432 944 432
WIRE 160 448 160 400
WIRE 768 480 768 432
WIRE 832 480 768 480
WIRE 976 480 976 432
WIRE 976 480 912 480
WIRE 256 496 224 496
WIRE 768 496 768 480
WIRE 768 496 336 496
WIRE 768 544 768 496
WIRE 880 544 768 544
WIRE 1136 544 1072 544
WIRE 160 560 160 544
WIRE 976 560 976 480
WIRE 976 560 944 560
WIRE 880 576 848 576
WIRE 848 592 848 576
WIRE 1072 592 1072 544
WIRE 1072 592 944 592
WIRE 1136 592 1136 544
WIRE 816 608 816 176
WIRE 880 608 816 608
WIRE 1136 704 1136 672
FLAG 48 400 0
FLAG 1104 208 0
FLAG 624 400 0
FLAG -352 400 0
FLAG 352 416 0
FLAG 1216 144 0
FLAG 736 80 0
FLAG 976 192 0
FLAG 832 368 0
FLAG 1136 704 0
FLAG 848 592 0
FLAG 160 560 0
SYMBOL nmos -32 -32 R270
SYMATTR InstName M1
SYMATTR Value IRL530NS_L
SYMBOL res -128 -80 R0
SYMATTR InstName R1
SYMATTR Value 10k
SYMBOL res 32 0 R0
SYMATTR InstName R2
SYMATTR Value 1k
SYMBOL res 336 288 R180
WINDOW 0 36 76 Left 2
WINDOW 3 36 40 Left 2
SYMATTR InstName R3
SYMATTR Value 33k
SYMBOL res 448 176 R90
WINDOW 0 0 56 VBottom 2
WINDOW 3 32 56 VTop 2
SYMATTR InstName R4
SYMATTR Value 100
SYMBOL cap 480 192 R0
SYMATTR InstName C1
SYMATTR Value 10n
SYMBOL res 1088 80 R0
SYMATTR InstName R6
SYMATTR Value 1.1k
SYMBOL voltage -352 96 R0
WINDOW 123 0 0 Left 0
WINDOW 39 0 0 Left 0
SYMATTR InstName V1
SYMATTR Value 35V
SYMBOL voltage 624 272 R0
WINDOW 123 0 0 Left 0
WINDOW 39 0 0 Left 0
SYMATTR InstName V2
SYMATTR Value 2.5
SYMBOL res 96 0 R0
SYMATTR InstName R7
SYMATTR Value 1.2k
SYMBOL res 496 144 R90
WINDOW 0 0 56 VBottom 2
WINDOW 3 32 56 VTop 2
SYMATTR InstName R10
SYMATTR Value 1Meg
SYMBOL pnp 112 256 R180
SYMATTR InstName Q1
SYMATTR Value BC557B
SYMBOL AutoGenerated\\LM324 416 304 R180
SYMATTR InstName U2
SYMBOL res 1088 -48 R0
SYMATTR InstName R8
SYMATTR Value 10k
SYMBOL res 1008 -96 R90
WINDOW 0 0 56 VBottom 2
WINDOW 3 32 56 VTop 2
SYMATTR InstName R5
SYMATTR Value 0.330
SYMBOL res 1008 -64 R0
SYMATTR InstName R9
SYMATTR Value 100k
SYMBOL res 864 -64 R0
SYMATTR InstName R11
SYMATTR Value 100k
SYMBOL AutoGenerated\\LM324 976 128 R90
SYMATTR InstName U1
SYMBOL res 1056 128 R0
SYMATTR InstName R12
SYMATTR Value 1Meg
SYMBOL res 864 48 R90
WINDOW 0 0 56 VBottom 2
WINDOW 3 32 56 VTop 2
SYMATTR InstName R13
SYMATTR Value 1Meg
SYMBOL AutoGenerated\\LM324 912 576 R180
SYMATTR InstName U3
SYMBOL res 960 352 R180
WINDOW 0 36 76 Left 2
WINDOW 3 36 40 Left 2
SYMATTR InstName R14
SYMATTR Value 2.2k
SYMBOL res 848 368 R270
WINDOW 0 32 56 VTop 2
WINDOW 3 0 56 VBottom 2
SYMATTR InstName R15
SYMATTR Value 1k
SYMBOL voltage 1136 576 R0
WINDOW 123 0 0 Left 0
WINDOW 39 0 0 Left 0
SYMATTR InstName V3
SYMATTR Value 2.5
SYMBOL res 928 464 R90
WINDOW 0 0 56 VBottom 2
WINDOW 3 32 56 VTop 2
SYMATTR InstName R16
SYMATTR Value 1Meg
SYMBOL res 880 416 R90
WINDOW 0 0 56 VBottom 2
WINDOW 3 32 56 VTop 2
SYMATTR InstName R17
SYMATTR Value 100
SYMBOL cap 944 416 R90
WINDOW 0 0 32 VBottom 2
WINDOW 3 32 32 VTop 2
SYMATTR InstName C2
SYMATTR Value 10n
SYMBOL schottky 144 240 R0
SYMATTR InstName D2
SYMATTR Value 1N5819
SYMATTR Description Diode
SYMATTR Type diode
SYMBOL res 176 416 R180
WINDOW 0 36 76 Left 2
WINDOW 3 36 40 Left 2
SYMATTR InstName R18
SYMATTR Value 100
SYMBOL pnp 224 544 R180
SYMATTR InstName Q2
SYMATTR Value BC557B
SYMBOL res 352 480 R90
WINDOW 0 0 56 VBottom 2
WINDOW 3 32 56 VTop 2
SYMATTR InstName R19
SYMATTR Value 1k
SYMBOL res 1200 32 R0
SYMATTR InstName R20
SYMATTR Value 10
TEXT 168 88 Left 2 !.dc V2 0 3 0.01
TEXT 176 56 Left 2 !;tran 0.5
