Version 4
SHEET 1 1520 1352
WIRE -608 96 -832 96
WIRE -544 96 -608 96
WIRE 176 96 -448 96
WIRE 720 96 176 96
WIRE 752 96 720 96
WIRE 880 96 832 96
WIRE 1088 96 880 96
WIRE 1216 96 1088 96
WIRE -608 128 -608 96
WIRE 880 144 880 96
WIRE 720 176 720 96
WIRE -464 208 -464 144
WIRE -464 208 -608 208
WIRE -464 224 -464 208
WIRE -96 256 -112 256
WIRE 32 256 -16 256
WIRE 880 256 880 224
WIRE 880 256 784 256
WIRE 944 256 880 256
WIRE 176 272 176 96
WIRE 1088 272 1088 96
WIRE 1216 272 1216 96
WIRE -832 288 -832 96
WIRE 720 288 720 256
WIRE 720 288 592 288
WIRE 816 288 720 288
WIRE 784 320 784 256
WIRE 816 320 816 288
WIRE -464 336 -464 304
WIRE -176 352 -176 256
WIRE -80 352 -96 352
WIRE 32 352 32 256
WIRE 32 352 -16 352
WIRE 944 368 944 256
WIRE 592 400 592 368
WIRE -464 448 -464 416
WIRE -16 448 -16 352
WIRE -16 448 -48 448
WIRE 176 448 176 352
WIRE 176 448 -16 448
WIRE 800 448 800 400
WIRE 800 448 624 448
WIRE 1088 448 1088 352
WIRE 1216 448 1216 336
WIRE 832 464 832 400
WIRE 832 464 704 464
WIRE 624 480 624 448
WIRE 768 480 768 400
WIRE 928 480 768 480
WIRE 944 480 944 448
WIRE 944 480 928 480
WIRE -384 496 -400 496
WIRE -368 496 -384 496
WIRE -176 496 -176 352
WIRE -176 496 -288 496
WIRE -144 496 -176 496
WIRE -48 512 -48 448
WIRE -48 512 -64 512
WIRE 176 512 176 448
WIRE -144 528 -192 528
WIRE 16 544 -64 544
WIRE -384 560 -384 496
WIRE -288 560 -384 560
WIRE -144 560 -160 560
WIRE -832 592 -832 368
WIRE -464 592 -464 544
WIRE 176 608 176 592
WIRE -192 624 -192 528
WIRE 16 640 16 624
WIRE -240 672 -752 672
WIRE -160 672 -160 560
WIRE -160 672 -240 672
WIRE 352 672 -160 672
WIRE 704 672 704 464
WIRE 704 672 352 672
WIRE -288 704 -288 624
WIRE -288 704 -368 704
WIRE -752 752 -752 672
WIRE 720 784 560 784
WIRE -368 800 -368 704
WIRE -64 800 -112 800
WIRE -64 832 -64 800
WIRE -752 864 -752 832
WIRE -208 880 -288 880
WIRE -112 880 -112 800
WIRE 560 880 560 784
WIRE 560 880 288 880
WIRE 608 880 560 880
WIRE 160 896 -80 896
WIRE 800 896 800 784
WIRE 800 896 688 896
WIRE 1008 896 800 896
WIRE -288 912 -288 880
WIRE -208 912 -208 880
WIRE -144 912 -208 912
WIRE 608 912 560 912
WIRE -32 928 -80 928
WIRE -16 928 -32 928
WIRE 288 928 288 880
WIRE 288 928 64 928
WIRE 560 928 560 912
WIRE 928 928 928 480
WIRE 928 928 688 928
WIRE 1008 928 1008 896
WIRE -240 944 -240 672
WIRE -112 944 -240 944
WIRE 352 944 352 672
WIRE 608 944 352 944
WIRE -368 960 -368 880
WIRE -288 1008 -288 992
WIRE -288 1008 -304 1008
WIRE 160 1008 160 896
WIRE -208 1040 -208 912
WIRE 1008 1040 1008 1008
WIRE -368 1120 -368 1056
WIRE -208 1120 -208 1104
WIRE -32 1120 -32 928
WIRE -32 1120 -208 1120
WIRE 160 1168 160 1088
FLAG -464 592 0
FLAG -832 592 0
FLAG 16 640 0
FLAG -192 624 0
FLAG 176 608 0
FLAG 1088 448 0
FLAG 624 480 0
FLAG 1008 1040 0
FLAG 160 1168 0
FLAG -64 832 0
FLAG -368 1120 0
FLAG 592 400 0
FLAG 560 928 0
FLAG 1216 448 0
FLAG -752 864 0
SYMBOL res -624 112 R0
SYMATTR InstName R1
SYMATTR Value 10k
SYMBOL res -480 208 R0
SYMATTR InstName R2
SYMATTR Value 1k
SYMBOL pnp -400 544 R180
SYMATTR InstName Q1
SYMATTR Value BC857C
SYMBOL res -272 480 R90
WINDOW 0 0 56 VBottom 2
WINDOW 3 32 56 VTop 2
SYMATTR InstName R3
SYMATTR Value 1k
SYMBOL voltage -832 272 R0
WINDOW 123 24 72 Left 2
WINDOW 39 0 0 Left 2
WINDOW 3 24 44 Left 2
SYMATTR Value2 AC 30
SYMATTR Value 33
SYMATTR InstName V1
SYMBOL voltage 16 528 R0
WINDOW 123 24 124 Left 2
WINDOW 39 0 0 Left 2
SYMATTR InstName V2
SYMATTR Value SINE(2.5 2.5 20)
SYMBOL nmos -544 144 R270
SYMATTR InstName M1
SYMATTR Value IRFH5406
SYMBOL res 160 496 R0
SYMATTR InstName R5
SYMATTR Value 1k
SYMBOL res 160 256 R0
SYMATTR InstName R6
SYMATTR Value 4.7k
SYMBOL res -80 336 R90
WINDOW 0 0 56 VBottom 2
WINDOW 3 32 56 VTop 2
SYMATTR InstName R7
SYMATTR Value 1.5Meg
SYMBOL cap -16 336 R90
WINDOW 0 0 32 VBottom 2
WINDOW 3 32 32 VTop 2
SYMATTR InstName C1
SYMATTR Value 2.2n
SYMBOL res 848 80 R90
WINDOW 0 0 56 VBottom 2
WINDOW 3 32 56 VTop 2
SYMATTR InstName R8
SYMATTR Value 0.1
SYMBOL cap -112 240 R90
WINDOW 0 0 32 VBottom 2
WINDOW 3 32 32 VTop 2
SYMATTR InstName C3
SYMATTR Value 120p
SYMBOL res 0 240 R90
WINDOW 0 0 56 VBottom 2
WINDOW 3 32 56 VTop 2
SYMATTR InstName R10
SYMATTR Value 0
SYMBOL ind -480 320 R0
SYMATTR InstName L1
SYMATTR Value 50µ
SYMBOL res 704 160 R0
SYMATTR InstName R4
SYMATTR Value 100k
SYMBOL res 864 128 R0
SYMATTR InstName R11
SYMATTR Value 100k
SYMBOL res 928 352 R0
SYMATTR InstName R12
SYMATTR Value 100k
SYMBOL res 992 912 R0
SYMATTR InstName R16
SYMATTR Value 1k
SYMBOL res 80 912 R90
WINDOW 0 0 56 VBottom 2
WINDOW 3 32 56 VTop 2
SYMATTR InstName R17
SYMATTR Value 10k
SYMBOL voltage 160 992 R0
WINDOW 123 24 124 Left 2
WINDOW 39 0 0 Left 2
SYMATTR InstName V3
SYMATTR Value 0.5
SYMBOL AutoGenerated\\LM224_ON -96 528 R180
SYMATTR InstName U4
SYMBOL AutoGenerated\\LM224_ON 800 352 R90
SYMATTR InstName U1
SYMBOL res -272 1008 R180
WINDOW 0 36 76 Left 2
WINDOW 3 36 40 Left 2
SYMATTR InstName R19
SYMATTR Value 1k
SYMBOL res -384 784 R0
SYMATTR InstName R20
SYMATTR Value 10
SYMBOL pnp -304 1056 R180
SYMATTR InstName Q2
SYMATTR Value BC557B
SYMBOL schottky -304 560 R0
SYMATTR InstName D1
SYMATTR Value BAT54
SYMATTR Description Diode
SYMATTR Type diode
SYMBOL Comparators\\LT1018 -112 912 R180
SYMATTR InstName U2
SYMBOL res 1072 256 R0
SYMATTR InstName R14
SYMATTR Value 5
SYMBOL res 576 272 R0
SYMATTR InstName R21
SYMATTR Value 100k
SYMBOL AutoGenerated\\LM224_ON 656 912 R180
SYMATTR InstName U3
SYMBOL res 816 768 R90
WINDOW 0 0 56 VBottom 2
WINDOW 3 32 56 VTop 2
SYMATTR InstName R13
SYMATTR Value 22k
SYMBOL cap -224 1040 R0
SYMATTR InstName C5
SYMATTR Value 500p
SYMBOL cap 1200 272 R0
SYMATTR InstName C4
SYMATTR Value 5µ
SYMBOL voltage -752 736 R0
WINDOW 123 24 72 Left 2
WINDOW 39 0 0 Left 2
WINDOW 3 24 44 Left 2
SYMATTR Value 40
SYMATTR InstName V4
TEXT -184 -40 Left 2 !;dc V2 0 5 0.1
TEXT -184 56 Left 2 !;ac dec 100 0.1 10Meg
TEXT -176 24 Left 2 !.tran 0 0.1 0 0.01
TEXT -184 0 Left 2 !;tf V(n003) V1 list 0.5
TEXT -800 424 Left 2 !;noise V(n003) V1 list 0.5
